Version 4
SHEET 1 2228 1044
WIRE 672 416 624 416
WIRE 1088 416 1088 384
WIRE 1088 416 752 416
WIRE 1152 416 1152 400
WIRE 1152 416 1088 416
WIRE 1216 416 1152 416
WIRE 624 464 624 416
WIRE 1216 464 1216 416
WIRE 1296 464 1216 464
WIRE 1488 464 1424 464
WIRE 1600 464 1568 464
WIRE 1648 464 1600 464
WIRE 1696 464 1648 464
WIRE 1296 496 1216 496
WIRE 1456 496 1424 496
WIRE 1600 496 1600 464
WIRE 1696 496 1696 464
WIRE 1296 528 1264 528
WIRE 1552 528 1424 528
WIRE 624 544 624 496
WIRE 640 544 624 544
WIRE 672 544 640 544
WIRE 1088 544 752 544
WIRE 1152 544 1088 544
WIRE 1216 544 1216 496
WIRE 1216 544 1152 544
WIRE 1152 560 1152 544
WIRE 1296 560 1264 560
WIRE 1440 560 1424 560
WIRE 1088 576 1088 544
WIRE 1264 592 1264 560
WIRE 1600 592 1600 560
WIRE 1696 592 1696 576
WIRE 1696 592 1600 592
WIRE 1600 608 1600 592
WIRE 1440 640 1440 560
WIRE 1456 640 1440 640
WIRE 1552 640 1552 528
WIRE 1552 640 1536 640
WIRE 1440 736 1440 640
WIRE 1456 736 1440 736
WIRE 1552 736 1552 640
WIRE 1552 736 1536 736
WIRE -992 880 -1072 880
WIRE -928 880 -992 880
WIRE -848 880 -928 880
WIRE -544 880 -592 880
WIRE -480 880 -544 880
WIRE -432 880 -480 880
WIRE -992 912 -992 880
WIRE -928 912 -928 880
WIRE -544 912 -544 880
WIRE -480 912 -480 880
WIRE -1072 928 -1072 880
WIRE -1072 1008 -1072 960
WIRE -992 1008 -992 976
WIRE -992 1008 -1072 1008
WIRE -928 1008 -928 976
WIRE -928 1008 -992 1008
WIRE -720 1008 -720 976
WIRE -720 1008 -928 1008
WIRE -544 1008 -544 976
WIRE -544 1008 -720 1008
WIRE -480 1008 -480 976
WIRE -480 1008 -544 1008
WIRE -720 1024 -720 1008
FLAG -608 480 Vp+
FLAG -608 512 Vp-
FLAG -432 880 +5V
FLAG 1264 592 0
FLAG 1456 496 0
FLAG 1648 464 Vpsen
FLAG 1600 608 0
FLAG 1152 320 0
FLAG 1152 640 0
FLAG 1088 640 0
FLAG 1088 320 0
FLAG 1216 496 INA826_IN-
FLAG 1216 464 INA826_IN+
FLAG -720 1024 0
FLAG 624 416 Vin
FLAG 640 704 0
SYMBOL MiniSyms4\\voltage- -608 496 R0
WINDOW 123 0 0 Left 0
WINDOW 39 0 0 Left 0
SYMATTR InstName Panel
SYMATTR Value SINE(20 20 10k)
SYMBOL MiniSyms4\\voltage- -1072 944 R0
WINDOW 123 0 0 Left 0
WINDOW 39 0 0 Left 0
SYMATTR InstName V1
SYMATTR Value 18
SYMBOL AutoGenerated\\INA826 1360 512 R0
SYMATTR InstName U3
SYMBOL res 768 400 R90
WINDOW 0 0 56 VBottom 2
WINDOW 3 32 56 VTop 2
SYMATTR InstName R10
SYMATTR Value 100k
SYMBOL res 768 528 R90
WINDOW 0 0 56 VBottom 2
WINDOW 3 32 56 VTop 2
SYMATTR InstName R11
SYMATTR Value 100k
SYMBOL res 1584 448 R90
WINDOW 0 0 56 VBottom 2
WINDOW 3 32 56 VTop 2
SYMATTR InstName R13
SYMATTR Value 10
SYMBOL res 1680 480 R0
SYMATTR InstName Rloadb1
SYMATTR Value 10k
SYMBOL res 1136 304 R0
SYMATTR InstName R15
SYMATTR Value 8.2k
SYMBOL res 1136 544 R0
SYMATTR InstName R16
SYMATTR Value 8.2k
SYMBOL cap 1104 320 M0
SYMATTR InstName C8
SYMATTR Value 1n
SYMBOL cap 1104 576 M0
SYMATTR InstName C9
SYMATTR Value 1n
SYMBOL Vreg\\7805 -720 880 R0
SYMATTR InstName U4
SYMBOL cap -944 912 R0
SYMATTR InstName C10
SYMATTR Value 10µ
SYMBOL cap -1008 912 R0
SYMATTR InstName C11
SYMATTR Value 100n
SYMBOL cap -560 912 R0
SYMATTR InstName C12
SYMATTR Value 100n
SYMBOL cap -496 912 R0
SYMATTR InstName C13
SYMATTR Value 1µ
SYMBOL MiniSyms4\\voltage- 624 480 R0
WINDOW 123 0 0 Left 0
WINDOW 39 0 0 Left 0
SYMATTR InstName V2
SYMATTR Value PULSE(5 17 0 30m 1m 1m 32m)
SYMBOL MiniSyms4\\voltage- 1264 544 R0
WINDOW 123 0 0 Left 0
WINDOW 39 0 0 Left 0
SYMATTR InstName V3
SYMATTR Value 18
SYMBOL voltage 640 528 R0
WINDOW 123 0 0 Left 0
WINDOW 39 0 0 Left 0
SYMATTR InstName V4
SYMATTR Value 15
SYMBOL voltage 640 608 R0
WINDOW 123 0 0 Left 0
WINDOW 39 0 0 Left 0
SYMATTR InstName V5
SYMATTR Value 15
SYMBOL res 1552 624 R90
WINDOW 0 0 56 VBottom 2
WINDOW 3 32 56 VTop 2
SYMATTR InstName R1
SYMATTR Value 22k
TEXT -616 648 Left 2 !.tran 0 32m 50u startup
