Version 4
SHEET 1 1152 704
WIRE -480 112 -480 96
WIRE -480 128 -480 112
WIRE -480 224 -480 208
WIRE 496 224 496 192
WIRE -480 240 -480 224
WIRE 432 256 352 256
WIRE 80 288 0 288
WIRE 224 288 160 288
WIRE 288 288 224 288
WIRE 352 288 352 256
WIRE 352 288 288 288
WIRE 432 288 400 288
WIRE 752 304 672 304
WIRE -480 336 -480 320
WIRE 752 336 752 304
WIRE 48 368 0 368
WIRE 80 368 48 368
WIRE 224 368 160 368
WIRE 288 368 224 368
WIRE 352 368 288 368
WIRE 432 368 432 352
WIRE 432 368 400 368
WIRE 352 384 352 368
WIRE 432 384 352 384
WIRE 608 416 608 352
WIRE 752 432 752 416
WIRE -480 464 -480 336
WIRE 784 512 784 496
WIRE 784 512 720 512
WIRE 784 528 784 512
WIRE 720 544 720 512
WIRE 720 608 720 576
FLAG 784 464 Vcc
FLAG 784 528 0
FLAG -480 224 Vbat3
FLAG 0 288 Vbat3
FLAG 496 192 Vcc
FLAG 752 432 0
FLAG 352 256 IN+
FLAG 352 384 IN-
FLAG 752 304 Vout
FLAG -480 16 Vbat1
FLAG -480 112 Vbat2
FLAG -480 464 0
FLAG -480 336 GND1
FLAG 48 368 GND1
FLAG 720 608 Vcc-
FLAG 608 416 0
FLAG 224 208 0
FLAG 224 448 0
FLAG 496 400 0
FLAG 288 224 0
FLAG 288 432 0
SYMBOL MiniSyms4\\voltage- 784 480 R0
WINDOW 123 0 0 Left 0
WINDOW 39 0 0 Left 0
SYMATTR InstName V1
SYMATTR Value 15
SYMBOL voltage -480 224 R0
WINDOW 123 0 0 Left 0
WINDOW 39 0 0 Left 0
SYMATTR InstName V2
SYMATTR Value PULSE(8 17 0 60m 1m 3m 64m)
SYMBOL voltage -480 112 R0
WINDOW 123 0 0 Left 0
WINDOW 39 0 0 Left 0
SYMATTR InstName V3
SYMATTR Value 12
SYMBOL voltage -480 0 R0
WINDOW 123 0 0 Left 0
WINDOW 39 0 0 Left 0
SYMATTR InstName V4
SYMATTR Value 12
SYMBOL res 176 272 R90
WINDOW 0 0 56 VBottom 2
WINDOW 3 32 56 VTop 2
SYMATTR InstName R6
SYMATTR Value 18k
SYMBOL res 176 352 R90
WINDOW 0 0 56 VBottom 2
WINDOW 3 32 56 VTop 2
SYMATTR InstName R7
SYMATTR Value 18k
SYMBOL res 736 320 R0
SYMATTR InstName R1
SYMATTR Value 100k
SYMBOL INA826 528 320 R0
SYMATTR InstName U1
SYMBOL res 416 272 M0
SYMATTR InstName R4
SYMATTR Value 12k
SYMBOL MiniSyms4\\voltage- 720 560 R0
WINDOW 123 0 0 Left 0
WINDOW 39 0 0 Left 0
SYMATTR InstName V6
SYMATTR Value -5
SYMBOL res 208 352 R0
SYMATTR InstName R3
SYMATTR Value 1k
SYMBOL res 208 192 R0
SYMATTR InstName R5
SYMATTR Value 1k
SYMBOL cap 272 224 R0
SYMATTR InstName C1
SYMATTR Value 1n
SYMBOL cap 272 368 R0
SYMATTR InstName C2
SYMATTR Value 1n
TEXT -522 520 Left 2 !.tran 0.3
